result/opf_result_max.json
{
    "solve_time": 0.4869999885559082,
    "optimizer": "Ipopt",
    "termination_status": "LOCALLY_SOLVED",
    "dual_status": "FEASIBLE_POINT",
    "primal_status": "FEASIBLE_POINT",
    "objective": 0.0438061870504262,
    "solution": {
        "branch": {
            "24": {
                "qf": [
                    0.0031186425939102678,
                    0.0031186425939104404,
                    0.0031186425939103866
                ],
                "qt": [
                    -0.003061358088992588,
                    -0.003061358088992719,
                    -0.0030613580889926654
                ],
                "pt": [
                    -0.0027446998091715386,
                    -0.0027446998091727954,
                    -0.002744699809172848
                ],
                "pf": [
                    0.002809671678453989,
                    0.0028096716784553116,
                    0.0028096716784553515
                ]
            },
            "32": {
                "qf": [
                    0.00040481393183349504,
                    0.00040481393183355993,
                    0.0004048139318335228
                ],
                "qt": [
                    -0.0004009129614841662,
                    -0.0004009129614842288,
                    -0.0004009129614841914
                ],
                "pt": [
                    -0.0009007514675679238,
                    -0.0009007514675679854,
                    -0.0009007514675679492
                ],
                "pf": [
                    0.0009050806779570617,
                    0.000905080677957143,
                    0.000905080677957144
                ]
            },
            "1": {
                "qf": [
                    0.008414101739963157,
                    0.008414101739963407,
                    0.008414101739962827
                ],
                "qt": [
                    -0.008380013187918934,
                    -0.008380013187919106,
                    -0.008380013187919146
                ],
                "pt": [
                    -0.013338465016064272,
                    -0.013338465016063802,
                    -0.013338465016064966
                ],
                "pf": [
                    0.013405336582153312,
                    0.013405336582153362,
                    0.01340533658215333
                ]
            },
            "12": {
                "qf": [
                    0.003211705357044918,
                    0.0032117053570450828,
                    0.003211705357045149
                ],
                "qt": [
                    -0.003201975926357998,
                    -0.0032019759263581704,
                    -0.003201975926358117
                ],
                "pt": [
                    -0.0030096716520823202,
                    -0.0030096716520836477,
                    -0.0030096716520836876
                ],
                "pf": [
                    0.0030287808250045872,
                    0.0030287808250059373,
                    0.003028780825006424
                ]
            },
            "29": {
                "qf": [
                    0.005347771680579439,
                    0.0053477716805790144,
                    0.005347771680579061
                ],
                "qt": [
                    -0.005163313885659799,
                    -0.005163313885659345,
                    -0.005163313885659418
                ],
                "pt": [
                    -0.007034294180558999,
                    -0.007034294180557633,
                    -0.00703429418055962
                ],
                "pf": [
                    0.0072479729744496305,
                    0.007247972974448327,
                    0.007247972974450394
                ]
            },
            "20": {
                "qf": [
                    0.0017940161451637199,
                    0.0017940161451632077,
                    0.0017940161451631333
                ],
                "qt": [
                    -0.0017598551847132116,
                    -0.0017598551847125955,
                    -0.0017598551847125207
                ],
                "pt": [
                    -0.0035802733415627556,
                    -0.003580273341559803,
                    -0.003580273341560717
                ],
                "pf": [
                    0.0035906077017448363,
                    0.0035906077017418565,
                    0.003590607701742762
                ]
            },
            "4": {
                "qf": [
                    0.0007106627915559279,
                    0.0007106627915560722,
                    0.0007106627915560061
                ],
                "qt": [
                    -0.0007015560635724097,
                    -0.0007015560635725272,
                    -0.0007015560635724513
                ],
                "pt": [
                    -0.0014013089547155054,
                    -0.0014013089547164315,
                    -0.0014013089547165512
                ],
                "pf": [
                    0.0014105233445786522,
                    0.0014105233445797988,
                    0.0014105233445798702
                ]
            },
            "2": {
                "qf": [
                    0.0008210278252921718,
                    0.0008210278252918358,
                    0.0008210278252916699
                ],
                "qt": [
                    -0.000819510020297384,
                    -0.0008195100202970417,
                    -0.0008195100202968782
                ],
                "pt": [
                    -0.001622461467365457,
                    -0.0016224614673625755,
                    -0.0016224614673635226
                ],
                "pf": [
                    0.001627051548700174,
                    0.0016270515486974035,
                    0.0016270515486983873
                ]
            },
            "6": {
                "qf": [
                    0.00013345182596795265,
                    0.00013345182596813518,
                    0.00013345182596794512
                ],
                "qt": [
                    -0.00013333333207469,
                    -0.00013333333207469006,
                    -0.00013333333207469006
                ],
                "pt": [
                    -0.00019999990168271845,
                    -0.00019999990168286208,
                    -0.00019999990168287414
                ],
                "pf": [
                    0.0002000759191579883,
                    0.00020007591915849348,
                    0.0002000759191584936
                ]
            },
            "25": {
                "qf": [
                    0.0001336336926377333,
                    0.00013363369263781353,
                    0.0001336336926377827
                ],
                "qt": [
                    -0.0001333333328863511,
                    -0.0001333333328863511,
                    -0.0001333333328863511
                ],
                "pt": [
                    -0.0002999999888871594,
                    -0.0002999999888871602,
                    -0.00029999998888716016
                ],
                "pf": [
                    0.00030022713590056334,
                    0.0003002271359006054,
                    0.0003002271359006306
                ]
            },
            "23": {
                "qf": [
                    0.002994691423356299,
                    0.00299469142335643,
                    0.0029946914233563763
                ],
                "qt": [
                    -0.0029554244045676033,
                    -0.0029554244045677416,
                    -0.0029554244045676913
                ],
                "pt": [
                    -0.002499626367553846,
                    -0.002499626367555097,
                    -0.002499626367555132
                ],
                "pf": [
                    0.0025446998453336487,
                    0.002544699845334896,
                    0.0025446998453349484
                ]
            },
            "22": {
                "qf": [
                    0.0005753874585200761,
                    0.0005753874585197467,
                    0.0005753874585195931
                ],
                "qt": [
                    -0.0005705428858237216,
                    -0.0005705428858234042,
                    -0.0005705428858232556
                ],
                "pt": [
                    -0.0012050685605031195,
                    -0.0012050685604986205,
                    -0.001205068560499532
                ],
                "pf": [
                    0.0012087487633930564,
                    0.0012087487633895965,
                    0.0012087487633905291
                ]
            },
            "11": {
                "qf": [
                    0.0002014735620757262,
                    0.00020147356207542998,
                    0.0002014735620753681
                ],
                "qt": [
                    -0.00020012993726434202,
                    -0.00020012993726424276,
                    -0.00020012993726421636
                ],
                "pt": [
                    -0.0004011421491209388,
                    -0.00040114214847957163,
                    -0.0004011421484799583
                ],
                "pf": [
                    0.0004021462297570635,
                    0.000402146229728772,
                    0.00040214622972951203
                ]
            },
            "13": {
                "qf": [
                    0.0003038762202225027,
                    0.0003038762202221851,
                    0.00030387622022203664
                ],
                "qt": [
                    -0.00030238732927439393,
                    -0.00030238732927408043,
                    -0.00030238732927398193
                ],
                "pt": [
                    -0.0008033962565343703,
                    -0.0008033962565263013,
                    -0.0008033962565271746
                ],
                "pf": [
                    0.0008050687297617471,
                    0.0008050687297564933,
                    0.0008050687297573958
                ]
            },
            "5": {
                "qf": [
                    0.0005389453500569897,
                    0.0005389453500572676,
                    0.0005389453500574437
                ],
                "qt": [
                    -0.000538147264741522,
                    -0.0005381472647415868,
                    -0.0005381472647415498
                ],
                "pt": [
                    -0.0012050806674152943,
                    -0.0012050806674153763,
                    -0.0012050806674153774
                ],
                "pf": [
                    0.0012059169794944298,
                    0.0012059169794949583,
                    0.0012059169794942839
                ]
            },
            "31": {
                "qf": [
                    0.003302631074654504,
                    0.003302631074654562,
                    0.0033026310746547094
                ],
                "qt": [
                    -0.0032950386895278204,
                    -0.0032950386895279856,
                    -0.0032950386895280515
                ],
                "pt": [
                    -0.0032287808004243493,
                    -0.0032287808004257033,
                    -0.00322878080042619
                ],
                "pf": [
                    0.0032436865021879197,
                    0.003243686502189529,
                    0.0032436865021906115
                ]
            },
            "15": {
                "qf": [
                    0.0002690539970157308,
                    0.0002690539970154172,
                    0.0002690539970153188
                ],
                "qt": [
                    -0.0002681402276576211,
                    -0.00026814022765732506,
                    -0.00026814022765726315
                ],
                "pt": [
                    -0.0006021458423609216,
                    -0.0006021458423406827,
                    -0.0006021458423414757
                ],
                "pf": [
                    0.0006033964958262291,
                    0.000603396495816092,
                    0.0006033964958169464
                ]
            },
            "27": {
                "qf": [
                    0.0007028433546297179,
                    0.0007028433546293755,
                    0.000702843354629212
                ],
                "qt": [
                    -0.0006920541241382473,
                    -0.000692054124137918,
                    -0.0006920541241377643
                ],
                "pt": [
                    -0.0014087486449857987,
                    -0.0014087486449825986,
                    -0.0014087486449835351
                ],
                "pf": [
                    0.0014224615308971995,
                    0.0014224615308942746,
                    0.0014224615308952209
                ]
            },
            "28": {
                "qf": [
                    0.00013346327169710988,
                    0.00013346327169701052,
                    0.00013346327169698414
                ],
                "qt": [
                    -0.00013333333222883284,
                    -0.00013333333222883295,
                    -0.00013333333222883295
                ],
                "pt": [
                    -0.0002473137631764583,
                    -0.0002504906169791786,
                    -0.00025049054243010254
                ],
                "pf": [
                    0.00020114403506732065,
                    0.00020114403382071887,
                    0.0002011440338208053
                ]
            },
            "16": {
                "qf": [
                    0.00108460634888299,
                    0.001084606348882436,
                    0.0010846063488823415
                ],
                "qt": [
                    -0.001068660274900968,
                    -0.00106866027490051,
                    -0.0010686602749004485
                ],
                "pt": [
                    -0.002198775779014989,
                    -0.0021987757790120615,
                    -0.002198775779013109
                ],
                "pf": [
                    0.0022209709239830212,
                    0.0022209709239800193,
                    0.0022209709239810692
                ]
            },
            "14": {
                "qf": [
                    0.002722091072379519,
                    0.0027220910723796572,
                    0.0027220910723796065
                ],
                "qt": [
                    -0.002710662790345752,
                    -0.002710662790345896,
                    -0.00271066279034583
                ],
                "pt": [
                    -0.002077189951588216,
                    -0.002077189951589398,
                    -0.0020771899515894714
                ],
                "pf": [
                    0.002099626416642894,
                    0.0020996264166441244,
                    0.0020996264166441582
                ]
            },
            "21": {
                "qf": [
                    0.0004682227314866101,
                    0.00046822273148672765,
                    0.0004682227314866518
                ],
                "qt": [
                    -0.0004667851580454491,
                    -0.0004667851580456317,
                    -0.0004667851580454416
                ],
                "pt": [
                    -0.0009000758235679514,
                    -0.0009000758235685886,
                    -0.0009000758235685997
                ],
                "pf": [
                    0.0009013090411681643,
                    0.0009013090411689917,
                    0.0009013090411691038
                ]
            },
            "38": {
                "qf": [
                    0.01320100489207237,
                    0.013201004892072751,
                    0.013201004892071877
                ],
                "qt": [
                    -0.00841410173956087,
                    -0.00841410173956112,
                    -0.00841410173956054
                ],
                "pt": [
                    -0.013405336572033456,
                    -0.013405336572033506,
                    -0.013405336572033473
                ],
                "pf": [
                    0.01460206235014204,
                    0.014602062350142126,
                    0.014602062350142034
                ]
            },
            "7": {
                "qf": [
                    0.007641067838284928,
                    0.007641067838284822,
                    0.007641067838284684
                ],
                "qt": [
                    -0.007496035419526263,
                    -0.0074960354195261324,
                    -0.007496035419526131
                ],
                "pt": [
                    -0.011514463709707176,
                    -0.011514463709705953,
                    -0.011514463709707998
                ],
                "pf": [
                    0.011799214713720241,
                    0.011799214713719242,
                    0.01179921471372108
                ]
            },
            "8": {
                "qf": [
                    0.0009219890434181853,
                    0.0009219890434178114,
                    0.0009219890434176923
                ],
                "qt": [
                    -0.0009210278243063113,
                    -0.0009210278243059754,
                    -0.0009210278243058093
                ],
                "pt": [
                    -0.0017770514921677577,
                    -0.0017770514921650188,
                    -0.001777051492166003
                ],
                "pf": [
                    0.001779958706513095,
                    0.0017799587065101931,
                    0.001779958706511201
                ]
            },
            "26": {
                "qf": [
                    0.005500921211727732,
                    0.005500921211727381,
                    0.005500921211727462
                ],
                "qt": [
                    -0.005447771679918507,
                    -0.005447771679918082,
                    -0.005447771679918128
                ],
                "pt": [
                    -0.0074479729582540375,
                    -0.007447972958252736,
                    -0.007447972958254803
                ],
                "pf": [
                    0.0075523278327927455,
                    0.007552327832791587,
                    0.007552327832793582
                ]
            },
            "17": {
                "qf": [
                    0.0010019936091659547,
                    0.0010019936091654968,
                    0.001001993609165435
                ],
                "qt": [
                    -0.0009886557091066638,
                    -0.00098865570910629,
                    -0.0009886557091061709
                ],
                "pt": [
                    -0.001979958653336181,
                    -0.001979958653333306,
                    -0.001979958653334314
                ],
                "pf": [
                    0.0019987758177329356,
                    0.001998775817729997,
                    0.0019987758177310443
                ]
            },
            "19": {
                "qf": [
                    0.0006720590865105688,
                    0.000672059086510691,
                    0.0006720590865106004
                ],
                "qt": [
                    -0.000666666666062111,
                    -0.0006666666660621111,
                    -0.0006666666660621111
                ],
                "pt": [
                    -0.001399999984464771,
                    -0.0013999999844647726,
                    -0.0013999999844647726
                ],
                "pf": [
                    0.0014068914244604984,
                    0.0014068914244605016,
                    0.0014068914244604765
                ]
            },
            "10": {
                "qf": [
                    0.001538690123802922,
                    0.0015386901238031514,
                    0.0015386901238029823
                ],
                "qt": [
                    -0.001527088870056866,
                    -0.0015270888700570217,
                    -0.0015270888700569297
                ],
                "pt": [
                    -0.0031343676261018742,
                    -0.003134367626101873,
                    -0.003134367626101918
                ],
                "pf": [
                    0.003151346147580174,
                    0.0031513461475802624,
                    0.0031513461475802798
                ]
            },
            "9": {
                "qf": [
                    0.0014265218522255098,
                    0.0014265218522248936,
                    0.001426521852224819
                ],
                "qt": [
                    -0.0014179396813324863,
                    -0.0014179396813319323,
                    -0.0014179396813318377
                ],
                "pt": [
                    -0.002887637560725662,
                    -0.002887637560722666,
                    -0.002887637560723716
                ],
                "pf": [
                    0.0029136067000492226,
                    0.002913606700046266,
                    0.00291360670004718
                ]
            },
            "18": {
                "qf": [
                    0.005824011962918593,
                    0.005824011962918233,
                    0.0058240119629184
                ],
                "qt": [
                    -0.005767587877800815,
                    -0.005767587877800464,
                    -0.005767587877800544
                ],
                "pt": [
                    -0.00795232781857812,
                    -0.007952327818576964,
                    -0.007952327818578957
                ],
                "pf": [
                    0.008063117574779205,
                    0.00806311757477789,
                    0.008063117574779921
                ]
            },
            "30": {
                "qf": [
                    0.0013604222039389996,
                    0.0013604222039391553,
                    0.0013604222039390634
                ],
                "qt": [
                    -0.0013387257525914798,
                    -0.001338725752591602,
                    -0.0013387257525915113
                ],
                "pt": [
                    -0.002806891409747021,
                    -0.002806891409747026,
                    -0.002806891409747001
                ],
                "pf": [
                    0.002834367639413363,
                    0.0028343676394133603,
                    0.002834367639413406
                ]
            },
            "3": {
                "qf": [
                    0.00026757962859216914,
                    0.0002675796285922317,
                    0.0002675796285921943
                ],
                "qt": [
                    -0.0002669670255267282,
                    -0.00026696702552680843,
                    -0.0002669670255267776
                ],
                "pt": [
                    -0.0006002271248604542,
                    -0.000600227124860497,
                    -0.0006002271248605223
                ],
                "pf": [
                    0.0006007514785265171,
                    0.0006007514785265779,
                    0.0006007514785265418
                ]
            }
        },
        "gen": {
            "1": {
                "qg_bus": [
                    0.01320100489207237,
                    0.013201004892072751,
                    0.013201004892071877
                ],
                "qg": [
                    0.01320100489207237,
                    0.013201004892072751,
                    0.013201004892071877
                ],
                "pg": [
                    0.01460206235014204,
                    0.014602062350142126,
                    0.014602062350142034
                ],
                "pg_bus": [
                    0.01460206235014204,
                    0.014602062350142126,
                    0.014602062350142034
                ]
            }
        },
        "multiinfrastructure": false,
        "settings": {
            "sbase_default": 100000.0,
            "vbases_default": {
                "12": 7.309254407940663
            },
            "voltage_scale_factor": 1000.0,
            "sbase": 100000.0,
            "power_scale_factor": 1000.0,
            "base_frequency": 60.0
        },
        "multinetwork": false,
        "load": {
            "24": {
                "qd_bus": [
                    0.0006666666666666668,
                    0.0006666666666666668,
                    0.0006666666666666668
                ],
                "pd_bus": [
                    0.0014000000000000002,
                    0.0014000000000000002,
                    0.0014000000000000002
                ],
                "qd": [
                    0.0006666666666666668,
                    0.0006666666666666668,
                    0.0006666666666666668
                ],
                "pd": [
                    0.0014000000000000002,
                    0.0014000000000000002,
                    0.0014000000000000002
                ]
            },
            "32": {
                "qd_bus": [
                    0.00013333333333333334,
                    0.00013333333333333334,
                    0.00013333333333333334
                ],
                "pd_bus": [
                    0.0002,
                    0.0002,
                    0.0002
                ],
                "qd": [
                    0.00013333333333333334,
                    0.00013333333333333334,
                    0.00013333333333333334
                ],
                "pd": [
                    0.0002,
                    0.0002,
                    0.0002
                ]
            },
            "1": {
                "qd_bus": [
                    0.0006666666666666668,
                    0.0006666666666666668,
                    0.0006666666666666668
                ],
                "pd_bus": [
                    0.0014000000000000002,
                    0.0014000000000000002,
                    0.0014000000000000002
                ],
                "qd": [
                    0.0006666666666666668,
                    0.0006666666666666668,
                    0.0006666666666666668
                ],
                "pd": [
                    0.0014000000000000002,
                    0.0014000000000000002,
                    0.0014000000000000002
                ]
            },
            "12": {
                "qd_bus": [
                    0.002,
                    0.002,
                    0.002
                ],
                "pd_bus": [
                    0.0006666666666666668,
                    0.0006666666666666668,
                    0.0006666666666666668
                ],
                "qd": [
                    0.002,
                    0.002,
                    0.002
                ],
                "pd": [
                    0.0006666666666666668,
                    0.0006666666666666668,
                    0.0006666666666666668
                ]
            },
            "29": {
                "qd_bus": [
                    6.666666666666667e-5,
                    6.666666666666667e-5,
                    6.666666666666667e-5
                ],
                "pd_bus": [
                    0.0002,
                    0.0002,
                    0.0002
                ],
                "qd": [
                    6.666666666666667e-5,
                    6.666666666666667e-5,
                    6.666666666666667e-5
                ],
                "pd": [
                    0.0002,
                    0.0002,
                    0.0002
                ]
            },
            "20": {
                "qd_bus": [
                    0.0002,
                    0.0002,
                    0.0002
                ],
                "pd_bus": [
                    0.0003333333333333334,
                    0.0003333333333333334,
                    0.0003333333333333334
                ],
                "qd": [
                    0.0002,
                    0.0002,
                    0.0002
                ],
                "pd": [
                    0.0003333333333333334,
                    0.0003333333333333334,
                    0.0003333333333333334
                ]
            },
            "4": {
                "qd_bus": [
                    0.00011666666666666667,
                    0.00011666666666666667,
                    0.00011666666666666667
                ],
                "pd_bus": [
                    0.0002,
                    0.0002,
                    0.0002
                ],
                "qd": [
                    0.00011666666666666667,
                    0.00011666666666666667,
                    0.00011666666666666667
                ],
                "pd": [
                    0.0002,
                    0.0002,
                    0.0002
                ]
            },
            "2": {
                "qd_bus": [
                    8.333333333333334e-5,
                    8.333333333333334e-5,
                    8.333333333333334e-5
                ],
                "pd_bus": [
                    0.0002,
                    0.0002,
                    0.0002
                ],
                "qd": [
                    8.333333333333334e-5,
                    8.333333333333334e-5,
                    8.333333333333334e-5
                ],
                "pd": [
                    0.0002,
                    0.0002,
                    0.0002
                ]
            },
            "6": {
                "qd_bus": [
                    6.666666666666667e-5,
                    6.666666666666667e-5,
                    6.666666666666667e-5
                ],
                "pd_bus": [
                    0.0002,
                    0.0002,
                    0.0002
                ],
                "qd": [
                    6.666666666666667e-5,
                    6.666666666666667e-5,
                    6.666666666666667e-5
                ],
                "pd": [
                    0.0002,
                    0.0002,
                    0.0002
                ]
            },
            "25": {
                "qd_bus": [
                    0.00013333333333333334,
                    0.00013333333333333334,
                    0.00013333333333333334
                ],
                "pd_bus": [
                    0.00030000000000000003,
                    0.00030000000000000003,
                    0.00030000000000000003
                ],
                "qd": [
                    0.00013333333333333334,
                    0.00013333333333333334,
                    0.00013333333333333334
                ],
                "pd": [
                    0.00030000000000000003,
                    0.00030000000000000003,
                    0.00030000000000000003
                ]
            },
            "23": {
                "qd_bus": [
                    0.00013333333333333334,
                    0.00013333333333333334,
                    0.00013333333333333334
                ],
                "pd_bus": [
                    0.00030000000000000003,
                    0.00030000000000000003,
                    0.00030000000000000003
                ],
                "qd": [
                    0.00013333333333333334,
                    0.00013333333333333334,
                    0.00013333333333333334
                ],
                "pd": [
                    0.00030000000000000003,
                    0.00030000000000000003,
                    0.00030000000000000003
                ]
            },
            "22": {
                "qd_bus": [
                    3.3333333333333335e-5,
                    3.3333333333333335e-5,
                    3.3333333333333335e-5
                ],
                "pd_bus": [
                    0.0002,
                    0.0002,
                    0.0002
                ],
                "qd": [
                    3.3333333333333335e-5,
                    3.3333333333333335e-5,
                    3.3333333333333335e-5
                ],
                "pd": [
                    0.0002,
                    0.0002,
                    0.0002
                ]
            },
            "11": {
                "qd_bus": [
                    0.0001666666666666667,
                    0.0001666666666666667,
                    0.0001666666666666667
                ],
                "pd_bus": [
                    0.00030000000000000003,
                    0.00030000000000000003,
                    0.00030000000000000003
                ],
                "qd": [
                    0.0001666666666666667,
                    0.0001666666666666667,
                    0.0001666666666666667
                ],
                "pd": [
                    0.00030000000000000003,
                    0.00030000000000000003,
                    0.00030000000000000003
                ]
            },
            "13": {
                "qd_bus": [
                    0.0001,
                    0.0001,
                    0.0001
                ],
                "pd_bus": [
                    0.00015000000000000001,
                    0.00015000000000000001,
                    0.00015000000000000001
                ],
                "qd": [
                    0.0001,
                    0.0001,
                    0.0001
                ],
                "pd": [
                    0.00015000000000000001,
                    0.00015000000000000001,
                    0.00015000000000000001
                ]
            },
            "5": {
                "qd_bus": [
                    0.0002666666666666667,
                    0.0002666666666666667,
                    0.0002666666666666667
                ],
                "pd_bus": [
                    0.0004,
                    0.0004,
                    0.0004
                ],
                "qd": [
                    0.0002666666666666667,
                    0.0002666666666666667,
                    0.0002666666666666667
                ],
                "pd": [
                    0.0004,
                    0.0004,
                    0.0004
                ]
            },
            "31": {
                "qd_bus": [
                    0.00023333333333333333,
                    0.00023333333333333333,
                    0.00023333333333333333
                ],
                "pd_bus": [
                    0.0005,
                    0.0005,
                    0.0005
                ],
                "qd": [
                    0.00023333333333333333,
                    0.00023333333333333333,
                    0.00023333333333333333
                ],
                "pd": [
                    0.0005,
                    0.0005,
                    0.0005
                ]
            },
            "15": {
                "qd_bus": [
                    0.0003333333333333334,
                    0.0003333333333333334,
                    0.0003333333333333334
                ],
                "pd_bus": [
                    0.0006666666666666668,
                    0.0006666666666666668,
                    0.0006666666666666668
                ],
                "qd": [
                    0.0003333333333333334,
                    0.0003333333333333334,
                    0.0003333333333333334
                ],
                "pd": [
                    0.0006666666666666668,
                    0.0006666666666666668,
                    0.0006666666666666668
                ]
            },
            "27": {
                "qd_bus": [
                    0.0003333333333333334,
                    0.0003333333333333334,
                    0.0003333333333333334
                ],
                "pd_bus": [
                    0.0006666666666666668,
                    0.0006666666666666668,
                    0.0006666666666666668
                ],
                "qd": [
                    0.0003333333333333334,
                    0.0003333333333333334,
                    0.0003333333333333334
                ],
                "pd": [
                    0.0006666666666666668,
                    0.0006666666666666668,
                    0.0006666666666666668
                ]
            },
            "28": {
                "qd_bus": [
                    6.666666666666667e-5,
                    6.666666666666667e-5,
                    6.666666666666667e-5
                ],
                "pd_bus": [
                    0.0002,
                    0.0002,
                    0.0002
                ],
                "qd": [
                    6.666666666666667e-5,
                    6.666666666666667e-5,
                    6.666666666666667e-5
                ],
                "pd": [
                    0.0002,
                    0.0002,
                    0.0002
                ]
            },
            "16": {
                "qd_bus": [
                    6.666666666666667e-5,
                    6.666666666666667e-5,
                    6.666666666666667e-5
                ],
                "pd_bus": [
                    0.0002,
                    0.0002,
                    0.0002
                ],
                "qd": [
                    6.666666666666667e-5,
                    6.666666666666667e-5,
                    6.666666666666667e-5
                ],
                "pd": [
                    0.0002,
                    0.0002,
                    0.0002
                ]
            },
            "14": {
                "qd_bus": [
                    0.00023333333333333333,
                    0.00023333333333333333,
                    0.00023333333333333333
                ],
                "pd_bus": [
                    0.0004,
                    0.0004,
                    0.0004
                ],
                "qd": [
                    0.00023333333333333333,
                    0.00023333333333333333,
                    0.00023333333333333333
                ],
                "pd": [
                    0.0004,
                    0.0004,
                    0.0004
                ]
            },
            "21": {
                "qd_bus": [
                    0.0001,
                    0.0001,
                    0.0001
                ],
                "pd_bus": [
                    0.0002,
                    0.0002,
                    0.0002
                ],
                "qd": [
                    0.0001,
                    0.0001,
                    0.0001
                ],
                "pd": [
                    0.0002,
                    0.0002,
                    0.0002
                ]
            },
            "7": {
                "qd_bus": [
                    0.0003333333333333334,
                    0.0003333333333333334,
                    0.0003333333333333334
                ],
                "pd_bus": [
                    0.0007000000000000001,
                    0.0007000000000000001,
                    0.0007000000000000001
                ],
                "qd": [
                    0.0003333333333333334,
                    0.0003333333333333334,
                    0.0003333333333333334
                ],
                "pd": [
                    0.0007000000000000001,
                    0.0007000000000000001,
                    0.0007000000000000001
                ]
            },
            "8": {
                "qd_bus": [
                    0.0002666666666666667,
                    0.0002666666666666667,
                    0.0002666666666666667
                ],
                "pd_bus": [
                    0.0004,
                    0.0004,
                    0.0004
                ],
                "qd": [
                    0.0002666666666666667,
                    0.0002666666666666667,
                    0.0002666666666666667
                ],
                "pd": [
                    0.0004,
                    0.0004,
                    0.0004
                ]
            },
            "26": {
                "qd_bus": [
                    0.00013333333333333334,
                    0.00013333333333333334,
                    0.00013333333333333334
                ],
                "pd_bus": [
                    0.00030000000000000003,
                    0.00030000000000000003,
                    0.00030000000000000003
                ],
                "qd": [
                    0.00013333333333333334,
                    0.00013333333333333334,
                    0.00013333333333333334
                ],
                "pd": [
                    0.00030000000000000003,
                    0.00030000000000000003,
                    0.00030000000000000003
                ]
            },
            "17": {
                "qd_bus": [
                    6.666666666666667e-5,
                    6.666666666666667e-5,
                    6.666666666666667e-5
                ],
                "pd_bus": [
                    0.0002,
                    0.0002,
                    0.0002
                ],
                "qd": [
                    6.666666666666667e-5,
                    6.666666666666667e-5,
                    6.666666666666667e-5
                ],
                "pd": [
                    0.0002,
                    0.0002,
                    0.0002
                ]
            },
            "19": {
                "qd_bus": [
                    6.666666666666667e-5,
                    6.666666666666667e-5,
                    6.666666666666667e-5
                ],
                "pd_bus": [
                    0.0002,
                    0.0002,
                    0.0002
                ],
                "qd": [
                    6.666666666666667e-5,
                    6.666666666666667e-5,
                    6.666666666666667e-5
                ],
                "pd": [
                    0.0002,
                    0.0002,
                    0.0002
                ]
            },
            "10": {
                "qd_bus": [
                    0.00011666666666666667,
                    0.00011666666666666667,
                    0.00011666666666666667
                ],
                "pd_bus": [
                    0.0002,
                    0.0002,
                    0.0002
                ],
                "qd": [
                    0.00011666666666666667,
                    0.00011666666666666667,
                    0.00011666666666666667
                ],
                "pd": [
                    0.0002,
                    0.0002,
                    0.0002
                ]
            },
            "9": {
                "qd_bus": [
                    0.00013333333333333334,
                    0.00013333333333333334,
                    0.00013333333333333334
                ],
                "pd_bus": [
                    0.00030000000000000003,
                    0.00030000000000000003,
                    0.00030000000000000003
                ],
                "qd": [
                    0.00013333333333333334,
                    0.00013333333333333334,
                    0.00013333333333333334
                ],
                "pd": [
                    0.00030000000000000003,
                    0.00030000000000000003,
                    0.00030000000000000003
                ]
            },
            "18": {
                "qd_bus": [
                    0.00013333333333333334,
                    0.00013333333333333334,
                    0.00013333333333333334
                ],
                "pd_bus": [
                    0.00030000000000000003,
                    0.00030000000000000003,
                    0.00030000000000000003
                ],
                "qd": [
                    0.00013333333333333334,
                    0.00013333333333333334,
                    0.00013333333333333334
                ],
                "pd": [
                    0.00030000000000000003,
                    0.00030000000000000003,
                    0.00030000000000000003
                ]
            },
            "30": {
                "qd_bus": [
                    8.333333333333334e-5,
                    8.333333333333334e-5,
                    8.333333333333334e-5
                ],
                "pd_bus": [
                    0.0002,
                    0.0002,
                    0.0002
                ],
                "qd": [
                    8.333333333333334e-5,
                    8.333333333333334e-5,
                    8.333333333333334e-5
                ],
                "pd": [
                    0.0002,
                    0.0002,
                    0.0002
                ]
            },
            "3": {
                "qd_bus": [
                    0.00013333333333333334,
                    0.00013333333333333334,
                    0.00013333333333333334
                ],
                "pd_bus": [
                    0.00030000000000000003,
                    0.00030000000000000003,
                    0.00030000000000000003
                ],
                "qd": [
                    0.00013333333333333334,
                    0.00013333333333333334,
                    0.00013333333333333334
                ],
                "pd": [
                    0.00030000000000000003,
                    0.00030000000000000003,
                    0.00030000000000000003
                ]
            }
        },
        "bus": {
            "24": {
                "va": [
                    -0.18420881263352748,
                    -2.2786039150266415,
                    1.9101862897597188
                ],
                "vm": [
                    0.6964507723062784,
                    0.6964507723063661,
                    0.6964507723063504
                ]
            },
            "32": {
                "va": [
                    -0.18068693876030978,
                    -2.27508204115347,
                    1.9137081636328976
                ],
                "vm": [
                    0.7025866900792737,
                    0.7025866900793198,
                    0.7025866900793081
                ]
            },
            "1": {
                "va": [
                    -0.18278125409670107,
                    -2.2771763564898513,
                    1.911613848296513
                ],
                "vm": [
                    0.6997513299439216,
                    0.6997513299439742,
                    0.6997513299439614
                ]
            },
            "12": {
                "va": [
                    -0.17453293514147677,
                    -2.268928037534672,
                    1.9198621672517189
                ],
                "vm": [
                    0.804036139358191,
                    0.804036139358186,
                    0.8040361393581964
                ]
            },
            "29": {
                "va": [
                    -0.16975638335498083,
                    -2.264151485748175,
                    1.924638719038213
                ],
                "vm": [
                    0.772487725816043,
                    0.7724877258160406,
                    0.7724877258160471
                ]
            },
            "20": {
                "va": [
                    -0.16209498264810276,
                    -2.2564900850413068,
                    1.9323001197450738
                ],
                "vm": [
                    0.6972034343988622,
                    0.697203434398851,
                    0.6972034343988507
                ]
            },
            "4": {
                "va": [
                    -0.1767274925371796,
                    -2.2711225949303655,
                    1.9176676098560148
                ],
                "vm": [
                    0.734592434992881,
                    0.7345924349928857,
                    0.7345924349928858
                ]
            },
            "2": {
                "va": [
                    -0.1595509678767563,
                    -2.253946070269957,
                    1.9348441345164245
                ],
                "vm": [
                    0.7026852537326915,
                    0.7026852537326835,
                    0.7026852537326833
                ]
            },
            "6": {
                "va": [
                    -0.1677539408243674,
                    -2.2621490432175615,
                    1.9266411615688255
                ],
                "vm": [
                    0.7629280942893351,
                    0.7629280942893338,
                    0.7629280942893385
                ]
            },
            "25": {
                "va": [
                    -0.17170382665487388,
                    -2.266098929048068,
                    1.9226912757383208
                ],
                "vm": [
                    0.7821465879382687,
                    0.7821465879382652,
                    0.7821465879382735
                ]
            },
            "23": {
                "va": [
                    -0.17674859630517545,
                    -2.2711436986983706,
                    1.9176465060880201
                ],
                "vm": [
                    0.7942279053184285,
                    0.7942279053184226,
                    0.7942279053184336
                ]
            },
            "22": {
                "va": [
                    -0.17557375977350412,
                    -2.269968862166689,
                    1.9188213426196903
                ],
                "vm": [
                    0.728456929934006,
                    0.7284569299340167,
                    0.7284569299340151
                ]
            },
            "11": {
                "va": [
                    -0.16302657179822994,
                    -2.2574216741914355,
                    1.9313685305949448
                ],
                "vm": [
                    0.6956236035903202,
                    0.695623603590308,
                    0.6956236035903077
                ]
            },
            "13": {
                "va": [
                    -0.17878656319336061,
                    -2.2731816655865327,
                    1.9156085391998403
                ],
                "vm": [
                    0.712095909122826,
                    0.7120959091228561,
                    0.7120959091228487
                ]
            },
            "5": {
                "va": [
                    -0.17022528337245468,
                    -2.264620385765647,
                    1.9241698190207357
                ],
                "vm": [
                    0.739090647793272,
                    0.7390906477932744,
                    0.7390906477932748
                ]
            },
            "31": {
                "va": [
                    -0.1762461568125277,
                    -2.2706412592057217,
                    1.9181489455806673
                ],
                "vm": [
                    0.764948767711201,
                    0.7649487677111967,
                    0.7649487677112055
                ]
            },
            "15": {
                "va": [
                    -0.16270932946319325,
                    -2.257104431856393,
                    1.9316857729299886
                ],
                "vm": [
                    0.7073633389866587,
                    0.7073633389866526,
                    0.7073633389866523
                ]
            },
            "27": {
                "va": [
                    -0.17502388332338464,
                    -2.2694189857165785,
                    1.9193712190698102
                ],
                "vm": [
                    0.769162465761093,
                    0.7691624657610888,
                    0.7691624657610975
                ]
            },
            "33": {
                "va": [
                    -0.17255723947520235,
                    -2.2669523418683966,
                    1.9218378629179924
                ],
                "vm": [
                    0.7776088674258068,
                    0.7776088674258029,
                    0.7776088674258114
                ]
            },
            "28": {
                "va": [
                    -0.16279239024597927,
                    -2.257187492639184,
                    1.9316027121471961
                ],
                "vm": [
                    0.6959973550496427,
                    0.6959973550496308,
                    0.6959973550496305
                ]
            },
            "16": {
                "va": [
                    -0.17622151590927299,
                    -2.2706166183024683,
                    1.9181735864839227
                ],
                "vm": [
                    0.7951082757644791,
                    0.7951082757644734,
                    0.7951082757644843
                ]
            },
            "14": {
                "va": [
                    -0.18588300531591637,
                    -2.2802781077087886,
                    1.908512097077567
                ],
                "vm": [
                    0.6941267007927324,
                    0.6941267007929475,
                    0.6941267007929296
                ]
            },
            "39": {
                "va": [
                    -4.738694294582765e-21,
                    -2.0943951023931953,
                    2.0943951023931957
                ],
                "vm": [
                    1.0,
                    1.0,
                    1.0
                ]
            },
            "21": {
                "va": [
                    -0.17730306100432344,
                    -2.271698163397519,
                    1.9170920413888721
                ],
                "vm": [
                    0.7934312522044351,
                    0.7934312522044292,
                    0.7934312522044401
                ]
            },
            "7": {
                "va": [
                    -0.1837157787807983,
                    -2.2781108811739372,
                    1.9106793236124253
                ],
                "vm": [
                    0.6980513657152302,
                    0.6980513657152928,
                    0.6980513657152788
                ]
            },
            "8": {
                "va": [
                    -0.17839439218483572,
                    -2.272789494578007,
                    1.9160007102083654
                ],
                "vm": [
                    0.7102275643517703,
                    0.7102275643518035,
                    0.710227564351795
                ]
            },
            "26": {
                "va": [
                    -0.18595207091021215,
                    -2.2803471732989578,
                    1.9084430314873984
                ],
                "vm": [
                    0.6935230793453117,
                    0.6935230793491824,
                    0.6935230793491649
                ]
            },
            "17": {
                "va": [
                    -0.17745091356814277,
                    -2.2718460159613216,
                    1.9169441888250547
                ],
                "vm": [
                    0.7205178833776328,
                    0.7205178833776525,
                    0.7205178833776482
                ]
            },
            "19": {
                "va": [
                    -0.1690733123894632,
                    -2.263468414782656,
                    1.9253217900037265
                ],
                "vm": [
                    0.7365586977892942,
                    0.736558697789296,
                    0.7365586977892958
                ]
            },
            "10": {
                "va": [
                    -0.17410899354772186,
                    -2.268504095940917,
                    1.9202861088454737
                ],
                "vm": [
                    0.8002382721410451,
                    0.8002382721410403,
                    0.8002382721410506
                ]
            },
            "9": {
                "va": [
                    -0.17902821952691172,
                    -2.273423321920084,
                    1.915366882866289
                ],
                "vm": [
                    0.7131716227188936,
                    0.7131716227189223,
                    0.7131716227189152
                ]
            },
            "18": {
                "va": [
                    -0.1744025172018511,
                    -2.2687976195950466,
                    1.9199925851913446
                ],
                "vm": [
                    0.7995784322810673,
                    0.7995784322810623,
                    0.7995784322810727
                ]
            },
            "30": {
                "va": [
                    -0.165014088156465,
                    -2.2594091905496616,
                    1.92938101423672
                ],
                "vm": [
                    0.718163496811252,
                    0.7181634968112487,
                    0.7181634968112485
                ]
            },
            "3": {
                "va": [
                    -0.1674286849698014,
                    -2.261823787362994,
                    1.9269664174233878
                ],
                "vm": [
                    0.7331912357897752,
                    0.733191235789776,
                    0.7331912357897756
                ]
            }
        },
        "per_unit": true
    },
    "objective_lb": null
}
